<?xml version="1.0" encoding="UTF-8"?>

<!-- generated on 2025-03-13 16:23:19.904817 by randomTrips.py v1_22_0+0002-63e50f52594
<configuration>
    <net-file value="osm.net.xml"/>
    <output-trip-file value="osm.passenger.trips.xml"/>
    <validate value="True"/>
    <end value="1000.0"/>
</configuration>
-->

<!-- generated on 2025-03-13 16:23:19 by Eclipse SUMO duarouter Version 1.22.0
<duarouterConfiguration xmlns:xsi="http://www.w3.org/2001/XMLSchema-instance" xsi:noNamespaceSchemaLocation="http://sumo.dlr.de/xsd/duarouterConfiguration.xsd">

    <input>
        <net-file value="osm.net.xml"/>
        <route-files value="osm.passenger.trips.xml"/>
    </input>

    <output>
        <output-file value="osm.passenger.trips.xml.tmp"/>
        <alternatives-output value="NUL"/>
        <write-trips value="true"/>
    </output>

    <time>
        <begin value="0"/>
        <end value="1000.0"/>
    </time>

    <report>
        <no-warnings value="true"/>
        <ignore-errors value="true"/>
        <no-step-log value="true"/>
    </report>

</duarouterConfiguration>
-->

<routes xmlns:xsi="http://www.w3.org/2001/XMLSchema-instance" xsi:noNamespaceSchemaLocation="http://sumo.dlr.de/xsd/routes_file.xsd">
    <trip id="7" depart="7.00" from="563679820#2" to="370761286#4"/>
    <trip id="13" depart="13.00" from="-24582919#0" to="-24582919#1"/>
    <trip id="14" depart="14.00" from="700293880" to="523568284#3-AddedOnRampEdge"/>
    <trip id="17" depart="17.00" from="1312753970#0" to="370761286#5"/>
    <trip id="21" depart="21.00" from="-686814926" to="1000448884#2"/>
    <trip id="24" depart="24.00" from="563679820#10" to="1300354437#1"/>
    <trip id="27" depart="27.00" from="563679820#2" to="553596950"/>
    <trip id="28" depart="28.00" from="-291266017#2" to="563974735#3"/>
    <trip id="29" depart="29.00" from="-291266017#0" to="1312753971#0"/>
    <trip id="39" depart="39.00" from="-707566696#1" to="-707566696#0"/>
    <trip id="50" depart="50.00" from="-1121142413#0" to="563974735#0"/>
    <trip id="51" depart="51.00" from="563679820#8" to="370761286#3"/>
    <trip id="52" depart="52.00" from="-707566696#1" to="563679820#11"/>
    <trip id="53" depart="53.00" from="-24582921#0" to="24582921#0"/>
    <trip id="55" depart="55.00" from="707566696#3" to="-707566696#4"/>
    <trip id="60" depart="60.00" from="578543603#0" to="370761286#3"/>
    <trip id="61" depart="61.00" from="578543603#3" to="370761286#1"/>
    <trip id="63" depart="63.00" from="-1121142413#1" to="720546573#7"/>
    <trip id="65" depart="65.00" from="1000448884#3" to="-164675827#1"/>
    <trip id="66" depart="66.00" from="707566696#3" to="80499778#0"/>
    <trip id="69" depart="69.00" from="578543603#0" to="-24582921#4"/>
    <trip id="71" depart="71.00" from="-707566696#1" to="707566696#1"/>
    <trip id="74" depart="74.00" from="-423563749#0" to="1119548738#1"/>
    <trip id="79" depart="79.00" from="-686814926" to="-686814926"/>
    <trip id="82" depart="82.00" from="707566695#1" to="-164675827#4"/>
    <trip id="93" depart="93.00" from="707566695#1" to="-707566696#1"/>
    <trip id="94" depart="94.00" from="-343654534#1" to="24582921#4"/>
    <trip id="101" depart="101.00" from="700293880" to="-291266017#2"/>
    <trip id="103" depart="103.00" from="164675827#2" to="-164675827#1"/>
    <trip id="104" depart="104.00" from="1312753970#0" to="997761541#0"/>
    <trip id="113" depart="113.00" from="291266019#0" to="700293880"/>
    <trip id="117" depart="117.00" from="-700293878" to="-24582921#3"/>
    <trip id="118" depart="118.00" from="707566696#5" to="-707566696#0"/>
    <trip id="124" depart="124.00" from="563679820#6" to="1000448884#4"/>
    <trip id="127" depart="127.00" from="997761541#1" to="997761541#2"/>
    <trip id="130" depart="130.00" from="707566696#4" to="707566696#3"/>
    <trip id="137" depart="137.00" from="-24582921#5" to="-24582921#2"/>
    <trip id="139" depart="139.00" from="-707566696#3" to="553596950"/>
    <trip id="155" depart="155.00" from="720546573#1" to="-562499724#1"/>
    <trip id="160" depart="160.00" from="707566696#0" to="996679780#2"/>
    <trip id="162" depart="162.00" from="-1121142413#2" to="563974735#5"/>
    <trip id="163" depart="163.00" from="1121142413#0" to="720546573#7"/>
    <trip id="167" depart="167.00" from="707566696#1" to="707566695#0"/>
    <trip id="176" depart="176.00" from="74851423#0" to="-24582921#2"/>
    <trip id="179" depart="179.00" from="-24582921#0" to="24582921#0"/>
    <trip id="195" depart="195.00" from="720546573#1" to="562499724#0"/>
    <trip id="198" depart="198.00" from="24582919#1" to="423563749#1"/>
    <trip id="199" depart="199.00" from="563679820#3" to="24582921#7"/>
    <trip id="208" depart="208.00" from="-707566695#0" to="24583592#1"/>
    <trip id="209" depart="209.00" from="700293880" to="-164675827#4"/>
    <trip id="211" depart="211.00" from="-343654534#2" to="563974731#1"/>
    <trip id="215" depart="215.00" from="-24582919#2" to="24582919#2"/>
    <trip id="216" depart="216.00" from="-291266017#2" to="80499778#3"/>
    <trip id="217" depart="217.00" from="343654534#1" to="-1123316542"/>
    <trip id="224" depart="224.00" from="665921717" to="370761286#4"/>
    <trip id="225" depart="225.00" from="720546573#0" to="563974735#6"/>
    <trip id="227" depart="227.00" from="-707566695#0" to="563679820#10"/>
    <trip id="230" depart="230.00" from="-24582918#0" to="1000448884#1"/>
    <trip id="235" depart="235.00" from="24582918#0" to="370761286#4"/>
    <trip id="239" depart="239.00" from="707566695#0" to="570616026#1"/>
    <trip id="241" depart="241.00" from="1121142413#3" to="563974735#8"/>
    <trip id="242" depart="242.00" from="707566695#0" to="80499778#2"/>
    <trip id="243" depart="243.00" from="24582918#2" to="563974735#7"/>
    <trip id="249" depart="249.00" from="24582921#6" to="-24582921#4"/>
    <trip id="253" depart="253.00" from="-24582921#5" to="24582921#6"/>
    <trip id="262" depart="262.00" from="563679820#2" to="563974735#8"/>
    <trip id="264" depart="264.00" from="-1121142413#1" to="-24583592#0"/>
    <trip id="268" depart="268.00" from="-291266017#1" to="553596950"/>
    <trip id="277" depart="277.00" from="700293880" to="523568284#3-AddedOnRampEdge"/>
    <trip id="282" depart="282.00" from="700293880" to="611866603#0"/>
    <trip id="287" depart="287.00" from="-707566696#3" to="611866602#2"/>
    <trip id="292" depart="292.00" from="707566696#4" to="-707566696#0"/>
    <trip id="300" depart="300.00" from="-24582918#2" to="563974735#0"/>
    <trip id="310" depart="310.00" from="-707566695#1" to="-24582921#3"/>
    <trip id="311" depart="311.00" from="-343654534#1" to="-24582921#3"/>
    <trip id="314" depart="314.00" from="291266017#0" to="563974735#1"/>
    <trip id="324" depart="324.00" from="24582921#6" to="24582921#2"/>
    <trip id="325" depart="325.00" from="-343654534#0" to="-1300354437#1"/>
    <trip id="326" depart="326.00" from="74851423#0" to="24583592#1"/>
    <trip id="330" depart="330.00" from="370761286#7" to="1000448884#4"/>
    <trip id="332" depart="332.00" from="578543603#0" to="553596950"/>
    <trip id="334" depart="334.00" from="343654534#1" to="24582921#4"/>
    <trip id="337" depart="337.00" from="563679820#0" to="553596950"/>
    <trip id="354" depart="354.00" from="-74851423#0" to="-24582921#4"/>
    <trip id="355" depart="355.00" from="563974731#0" to="563974731#1"/>
    <trip id="356" depart="356.00" from="74851423#0" to="291266017#3"/>
    <trip id="363" depart="363.00" from="563679820#6" to="-707566696#5"/>
    <trip id="364" depart="364.00" from="-1121142414" to="563974735#8"/>
    <trip id="369" depart="369.00" from="1121142413#3" to="1121142413#2"/>
    <trip id="370" depart="370.00" from="563679820#5" to="707566695#0"/>
    <trip id="372" depart="372.00" from="-74851423#0" to="80499778#0"/>
    <trip id="375" depart="375.00" from="1076627690" to="80499778#5"/>
    <trip id="379" depart="379.00" from="-343654534#1" to="1300354437#1"/>
    <trip id="389" depart="389.00" from="24582921#5" to="-24582921#2"/>
    <trip id="396" depart="396.00" from="707566696#3" to="707566695#1"/>
    <trip id="399" depart="399.00" from="291266019#1" to="611866603#0"/>
    <trip id="400" depart="400.00" from="-707566696#5" to="1000448884#3"/>
    <trip id="402" depart="402.00" from="291266017#1" to="-24583592#0"/>
    <trip id="406" depart="406.00" from="-343654534#1" to="563974731#1"/>
    <trip id="415" depart="415.00" from="707566696#1" to="24582921#2"/>
    <trip id="416" depart="416.00" from="343654534#2" to="24582921#5"/>
    <trip id="422" depart="422.00" from="707566695#0" to="707566695#1"/>
    <trip id="430" depart="430.00" from="707566696#1" to="24582921#3"/>
    <trip id="433" depart="433.00" from="-74851423#1" to="1312753970#1"/>
    <trip id="439" depart="439.00" from="-24582921#7" to="24582921#6"/>
    <trip id="440" depart="440.00" from="-707566695#1" to="-707566696#3"/>
    <trip id="452" depart="452.00" from="-707566696#4" to="370761286#8"/>
    <trip id="453" depart="453.00" from="563679820#9" to="563974735#6"/>
    <trip id="456" depart="456.00" from="-74851423#0" to="611866602#0"/>
    <trip id="459" depart="459.00" from="563679820#8" to="563974735#0"/>
    <trip id="465" depart="465.00" from="-74851423#1" to="563974735#7"/>
    <trip id="466" depart="466.00" from="-291266017#2" to="-24582921#5"/>
    <trip id="467" depart="467.00" from="370761286#2" to="80499778#5"/>
    <trip id="491" depart="491.00" from="-24582921#5" to="24582921#5"/>
    <trip id="492" depart="492.00" from="563679820#6" to="563974735#6"/>
    <trip id="503" depart="503.00" from="-343654534#1" to="-24582921#3"/>
    <trip id="504" depart="504.00" from="700293880" to="24582921#5"/>
    <trip id="505" depart="505.00" from="563679820#4" to="563679820#11"/>
    <trip id="514" depart="514.00" from="-24582921#7" to="-24582921#5"/>
    <trip id="515" depart="515.00" from="-707566695#1" to="-343654534#0"/>
    <trip id="519" depart="519.00" from="-291266017#2" to="-1300354437#1"/>
    <trip id="526" depart="526.00" from="343654534#1" to="24582921#6"/>
    <trip id="527" depart="527.00" from="80499778#3" to="-164675827#1"/>
    <trip id="531" depart="531.00" from="-24582918#1" to="553596950"/>
    <trip id="533" depart="533.00" from="563679820#10" to="370761286#5"/>
    <trip id="552" depart="552.00" from="570616026#0" to="707566696#0"/>
    <trip id="560" depart="560.00" from="700293878" to="996679780#2"/>
    <trip id="564" depart="564.00" from="-707566696#3" to="-343654534#1"/>
    <trip id="566" depart="566.00" from="1121142413#1" to="-1121142413#0"/>
    <trip id="567" depart="567.00" from="707566696#1" to="370761286#8"/>
    <trip id="573" depart="573.00" from="578543603#2" to="370761286#8"/>
    <trip id="574" depart="574.00" from="-24582918#1" to="-1300354437#1"/>
    <trip id="579" depart="579.00" from="570616026#0" to="-24582921#2"/>
    <trip id="582" depart="582.00" from="563679820#5" to="-1123316542"/>
    <trip id="588" depart="588.00" from="-291266017#2" to="1312753971#0"/>
    <trip id="590" depart="590.00" from="665921717" to="611866602#1"/>
    <trip id="592" depart="592.00" from="-1121142414" to="-1121142413#2"/>
    <trip id="594" depart="594.00" from="423563749#0" to="423563749#0"/>
    <trip id="603" depart="603.00" from="1121142413#1" to="1121142413#2"/>
    <trip id="606" depart="606.00" from="720546573#2" to="1121142414"/>
    <trip id="611" depart="611.00" from="563679820#3" to="-343654534#1"/>
    <trip id="613" depart="613.00" from="570616026#0" to="570616026#0"/>
    <trip id="616" depart="616.00" from="563679820#0" to="707566695#1"/>
    <trip id="617" depart="617.00" from="563679820#1" to="-24583592#0"/>
    <trip id="625" depart="625.00" from="291266019#1" to="24582921#6"/>
    <trip id="629" depart="629.00" from="1076627690" to="24583592#1"/>
    <trip id="632" depart="632.00" from="1121142413#2" to="563974732#2"/>
    <trip id="634" depart="634.00" from="-707566695#0" to="24582921#2"/>
    <trip id="641" depart="641.00" from="563679820#8" to="1000448884#1"/>
    <trip id="652" depart="652.00" from="563679820#9" to="370761286#1"/>
    <trip id="656" depart="656.00" from="74851423#1" to="291266017#1"/>
    <trip id="661" depart="661.00" from="-1121142413#4" to="1121142413#3"/>
    <trip id="662" depart="662.00" from="578543603#0" to="-24582921#5"/>
    <trip id="667" depart="667.00" from="563679820#8" to="-707566695#1"/>
    <trip id="672" depart="672.00" from="665921717" to="1312753970#0"/>
    <trip id="673" depart="673.00" from="74851423#1" to="997761541#0"/>
    <trip id="675" depart="675.00" from="1312753970#1" to="370761286#1"/>
    <trip id="678" depart="678.00" from="-707566695#1" to="563679820#11"/>
    <trip id="679" depart="679.00" from="707566696#1" to="370761286#6"/>
    <trip id="681" depart="681.00" from="700293880" to="1000448884#1"/>
    <trip id="683" depart="683.00" from="720546573#2" to="-24583592#0"/>
    <trip id="686" depart="686.00" from="1121142413#3" to="-1121142413#3"/>
    <trip id="688" depart="688.00" from="-700293878" to="997761541#2"/>
    <trip id="697" depart="697.00" from="665921717" to="370761286#5"/>
    <trip id="702" depart="702.00" from="24582921#4" to="-24582921#0"/>
    <trip id="705" depart="705.00" from="-700293880" to="-24582921#7"/>
    <trip id="709" depart="709.00" from="80499778#5" to="-164675827#2"/>
    <trip id="711" depart="711.00" from="996679781#0" to="370761286#6"/>
    <trip id="717" depart="717.00" from="578543603#1" to="563974735#5"/>
    <trip id="718" depart="718.00" from="1121142413#0" to="-1121142415"/>
    <trip id="722" depart="722.00" from="563679820#10" to="611866602#2"/>
    <trip id="733" depart="733.00" from="707566696#5" to="563974735#6"/>
    <trip id="737" depart="737.00" from="343654534#1" to="611866602#0"/>
    <trip id="744" depart="744.00" from="1121142413#3" to="-1121142415"/>
    <trip id="750" depart="750.00" from="563679820#8" to="80499778#2"/>
    <trip id="756" depart="756.00" from="563679820#8" to="80499778#0"/>
    <trip id="760" depart="760.00" from="-707566695#0" to="-24582921#2"/>
    <trip id="763" depart="763.00" from="-707566696#1" to="-707566696#4"/>
    <trip id="766" depart="766.00" from="291266017#1" to="-24582921#3"/>
    <trip id="767" depart="767.00" from="707566695#0" to="24582921#5"/>
    <trip id="789" depart="789.00" from="-343654534#0" to="80499778#5"/>
    <trip id="793" depart="793.00" from="1076627690" to="563974732#1"/>
    <trip id="796" depart="796.00" from="-707566695#1" to="563679820#10"/>
    <trip id="799" depart="799.00" from="291266019#0" to="-291266017#2"/>
    <trip id="800" depart="800.00" from="74851423#0" to="-291266017#0"/>
    <trip id="801" depart="801.00" from="563679820#3" to="563974735#0"/>
    <trip id="806" depart="806.00" from="563679820#2" to="570616026#1"/>
    <trip id="809" depart="809.00" from="-74851423#0" to="80499778#3"/>
    <trip id="811" depart="811.00" from="563679820#9" to="1000448884#3"/>
    <trip id="812" depart="812.00" from="-164675827#4" to="-164675827#1"/>
    <trip id="819" depart="819.00" from="1076627690" to="24582921#7"/>
    <trip id="820" depart="820.00" from="-707566696#3" to="-707566696#0"/>
    <trip id="823" depart="823.00" from="-707566695#0" to="707566696#0"/>
    <trip id="825" depart="825.00" from="423563749#0" to="1119548738#1"/>
    <trip id="829" depart="829.00" from="74851423#1" to="291266019#1"/>
    <trip id="833" depart="833.00" from="563679820#3" to="24583592#0"/>
    <trip id="842" depart="842.00" from="563679820#8" to="-24582921#3"/>
    <trip id="843" depart="843.00" from="80499778#5" to="164675827#4"/>
    <trip id="845" depart="845.00" from="74851423#0" to="563974735#8"/>
    <trip id="847" depart="847.00" from="291266019#0" to="-1123316542"/>
    <trip id="849" depart="849.00" from="24582921#7" to="24582921#5"/>
    <trip id="852" depart="852.00" from="-291266017#0" to="997761541#1"/>
    <trip id="866" depart="866.00" from="700293878" to="-24583592#0"/>
    <trip id="868" depart="868.00" from="74851423#1" to="-24582921#0"/>
    <trip id="871" depart="871.00" from="24582918#1" to="578543603#2"/>
    <trip id="878" depart="878.00" from="1121142413#2" to="1121142415"/>
    <trip id="879" depart="879.00" from="578543603#1" to="563974735#0"/>
    <trip id="882" depart="882.00" from="-707566695#0" to="370761286#6"/>
    <trip id="884" depart="884.00" from="1000448884#1" to="1000448884#2"/>
    <trip id="888" depart="888.00" from="-707566696#4" to="-24582921#3"/>
    <trip id="889" depart="889.00" from="563679820#8" to="1312753971#0"/>
    <trip id="892" depart="892.00" from="-74851423#1" to="1000448884#1"/>
    <trip id="906" depart="906.00" from="707566696#3" to="24583592#1"/>
    <trip id="913" depart="913.00" from="707566696#4" to="-343654534#1"/>
    <trip id="920" depart="920.00" from="-74851423#0" to="997761541#1"/>
    <trip id="922" depart="922.00" from="74851423#0" to="700293880"/>
    <trip id="926" depart="926.00" from="-343654534#0" to="563974735#5"/>
    <trip id="932" depart="932.00" from="-343654534#0" to="-24582921#6"/>
    <trip id="934" depart="934.00" from="-707566696#0" to="-707566695#0"/>
    <trip id="935" depart="935.00" from="570616026#0" to="80499778#2"/>
    <trip id="938" depart="938.00" from="563974731#0" to="-164675827#1"/>
    <trip id="947" depart="947.00" from="24582918#2" to="370761286#5"/>
    <trip id="950" depart="950.00" from="-707566695#0" to="563974735#8"/>
    <trip id="953" depart="953.00" from="-24582918#0" to="370761286#7"/>
    <trip id="957" depart="957.00" from="343654534#1" to="-24582921#2"/>
    <trip id="958" depart="958.00" from="-423563749#1" to="423563749#2"/>
    <trip id="961" depart="961.00" from="343654534#0" to="24582921#5"/>
    <trip id="966" depart="966.00" from="-1121142414" to="1121142413#4"/>
    <trip id="970" depart="970.00" from="24582918#0" to="578543603#1"/>
    <trip id="976" depart="976.00" from="563679820#4" to="370761286#3"/>
    <trip id="978" depart="978.00" from="-291266017#4" to="370761286#3"/>
    <trip id="982" depart="982.00" from="563679820#6" to="370761286#4"/>
    <trip id="992" depart="992.00" from="-1121142415" to="563974735#6"/>
    <trip id="996" depart="996.00" from="-74851423#0" to="611866602#3"/>
    <trip id="999" depart="999.00" from="1076627690" to="1000448884#4"/>
</routes>
