<?xml version="1.0" encoding="UTF-8"?>

<!-- generated on 2025-02-17 04:05:57 by Eclipse SUMO netconvert Version 1.22.0
<netconvertConfiguration xmlns:xsi="http://www.w3.org/2001/XMLSchema-instance" xsi:noNamespaceSchemaLocation="http://sumo.dlr.de/xsd/netconvertConfiguration.xsd">

    <input>
        <type-files value="${SUMO_HOME}\data\typemap\osmNetconvert.typ.xml"/>
        <osm-files value="osm_bbox.osm.xml.gz"/>
    </input>

    <output>
        <output-file value="osm.net.xml.gz"/>
        <output.street-names value="true"/>
        <output.original-names value="true"/>
    </output>

    <projection>
        <proj.utm value="true"/>
    </projection>

    <processing>
        <geometry.remove value="true"/>
        <roundabouts.guess value="true"/>
    </processing>

    <tls_building>
        <tls.discard-simple value="true"/>
        <tls.join value="true"/>
        <tls.guess-signals value="true"/>
        <tls.default-type value="actuated"/>
    </tls_building>

    <ramp_guessing>
        <ramps.guess value="true"/>
    </ramp_guessing>

    <junctions>
        <junctions.join value="true"/>
        <junctions.corner-detail value="5"/>
    </junctions>

</netconvertConfiguration>
-->

<net version="1.20" junctionCornerDetail="5" limitTurnSpeed="5.50" xmlns:xsi="http://www.w3.org/2001/XMLSchema-instance" xsi:noNamespaceSchemaLocation="http://sumo.dlr.de/xsd/net_file.xsd">

    <location netOffset="-717289.15,-3168659.62" convBoundary="0.00,0.00,703.94,513.84" origBoundary="77.222739,28.626770,77.229870,28.631411" projParameter="+proj=utm +zone=43 +ellps=WGS84 +datum=WGS84 +units=m +no_defs"/>

    <type id="highway.footway" priority="1" numLanes="1" speed="2.78" allow="pedestrian" oneway="1" width="2.00"/>
    <type id="highway.residential" priority="3" numLanes="1" speed="13.89" disallow="tram rail_urban rail rail_electric rail_fast ship container cable_car subway aircraft wheelchair scooter drone" oneway="0"/>
    <type id="highway.secondary" priority="11" numLanes="1" speed="27.78" disallow="tram rail_urban rail rail_electric rail_fast ship container cable_car subway aircraft wheelchair scooter drone" oneway="0"/>
    <type id="highway.secondary_link" priority="6" numLanes="1" speed="22.22" disallow="tram rail_urban rail rail_electric rail_fast ship container cable_car subway aircraft wheelchair scooter drone" oneway="0"/>
    <type id="highway.service" priority="1" numLanes="1" speed="5.56" allow="pedestrian delivery bicycle" oneway="0"/>
    <type id="highway.steps" priority="1" numLanes="1" speed="1.39" allow="pedestrian" oneway="1" width="2.00"/>
    <type id="railway.subway" priority="18" numLanes="1" speed="27.78" allow="subway" oneway="1"/>

    <edge id=":10216722849_0" function="internal">
        <lane id=":10216722849_0_0" index="0" disallow="tram rail_urban rail rail_electric rail_fast ship container cable_car subway aircraft wheelchair scooter drone" speed="13.89" length="8.95" shape="178.66,336.01 171.05,340.72"/>
    </edge>
    <edge id=":10216722849_1" function="internal">
        <lane id=":10216722849_1_0" index="0" allow="pedestrian delivery bicycle" speed="6.07" length="7.78" shape="178.66,336.01 176.17,337.21 174.17,337.67 172.66,337.40 171.64,336.39"/>
    </edge>
    <edge id=":10216722849_2" function="internal">
        <lane id=":10216722849_2_0" index="0" allow="pedestrian delivery bicycle" speed="6.14" length="7.43" shape="174.44,334.83 174.77,336.18 174.32,337.61 173.08,339.12 171.05,340.72"/>
    </edge>
    <edge id=":10216722849_3" function="internal">
        <lane id=":10216722849_3_0" index="0" allow="pedestrian delivery bicycle" speed="3.65" length="4.67" shape="174.44,334.83 174.32,336.27 173.82,337.01 172.93,337.05 171.64,336.39"/>
    </edge>
    <edge id=":10239800530_0" function="internal">
        <lane id=":10239800530_0_0" index="0" disallow="tram rail_urban rail rail_electric rail_fast ship container cable_car subway aircraft wheelchair scooter drone" speed="3.65" length="4.67" shape="375.16,428.66 376.61,428.72 377.36,429.20 377.43,430.09 376.82,431.40"/>
    </edge>
    <edge id=":10248637688_0" function="internal">
        <lane id=":10248637688_0_0" index="0" disallow="tram rail_urban rail rail_electric rail_fast ship container cable_car subway aircraft wheelchair scooter drone" speed="13.89" length="9.81" shape="88.75,484.24 83.38,476.04"/>
    </edge>
    <edge id=":10248637688_1" function="internal">
        <lane id=":10248637688_1_0" index="0" allow="pedestrian delivery bicycle" speed="7.89" length="2.82" shape="88.75,484.24 87.83,482.13 87.81,481.61"/>
    </edge>
    <edge id=":10248637688_7" function="internal">
        <lane id=":10248637688_7_0" index="0" allow="pedestrian delivery bicycle" speed="7.89" length="7.29" shape="87.81,481.61 87.75,479.86 88.49,477.45 90.06,474.88"/>
    </edge>
    <edge id=":10248637688_2" function="internal">
        <lane id=":10248637688_2_0" index="0" allow="pedestrian delivery bicycle" speed="6.31" length="6.19" shape="92.62,476.80 91.56,478.47 91.01,479.97 90.96,481.31 91.43,482.49"/>
    </edge>
    <edge id=":10248637688_3" function="internal">
        <lane id=":10248637688_3_0" index="0" allow="pedestrian delivery bicycle" speed="6.57" length="11.69" shape="92.62,476.80 90.29,479.08 87.97,479.72 85.67,478.70 83.38,476.04"/>
    </edge>
    <edge id=":10248637688_4" function="internal">
        <lane id=":10248637688_4_0" index="0" allow="pedestrian delivery bicycle" speed="3.65" length="4.67" shape="92.62,476.80 91.26,477.28 90.38,477.12 89.98,476.32 90.06,474.88"/>
    </edge>
    <edge id=":10248637688_5" function="internal">
        <lane id=":10248637688_5_0" index="0" allow="pedestrian delivery bicycle" speed="4.61" length="5.08" shape="86.06,474.28 87.09,475.51 88.09,476.01 89.09,475.80 90.06,474.88"/>
    </edge>
    <edge id=":10248637688_6" function="internal">
        <lane id=":10248637688_6_0" index="0" disallow="tram rail_urban rail rail_electric rail_fast ship container cable_car subway aircraft wheelchair scooter drone" speed="13.89" length="9.81" shape="86.06,474.28 91.43,482.49"/>
    </edge>
    <edge id=":10248637691_0" function="internal">
        <lane id=":10248637691_0_0" index="0" allow="pedestrian delivery bicycle" speed="5.56" length="8.26" shape="115.03,494.89 112.94,496.17 111.55,497.12 110.28,498.21 108.54,499.94"/>
    </edge>
    <edge id=":10248637691_1" function="internal">
        <lane id=":10248637691_1_0" index="0" allow="pedestrian delivery bicycle" speed="5.56" length="10.12" shape="115.03,494.89 112.48,495.98 110.19,496.00 108.16,494.95 106.38,492.83"/>
    </edge>
    <edge id=":10248637691_2" function="internal">
        <lane id=":10248637691_2_0" index="0" allow="pedestrian delivery bicycle" speed="3.65" length="4.67" shape="115.03,494.89 113.59,494.83 112.83,494.35 112.76,493.46 113.36,492.16"/>
    </edge>
    <edge id=":10248637691_3" function="internal">
        <lane id=":10248637691_3_0" index="0" allow="pedestrian delivery bicycle" speed="5.05" length="4.99" shape="109.10,491.14 109.98,492.19 110.98,492.71 112.11,492.70 113.36,492.16"/>
    </edge>
    <edge id=":10248637691_4" function="internal">
        <lane id=":10248637691_4_0" index="0" allow="pedestrian delivery bicycle" speed="5.56" length="9.60" shape="109.10,491.14 110.24,493.58 110.52,495.86 109.96,497.98 108.54,499.94"/>
    </edge>
    <edge id=":10248637691_5" function="internal">
        <lane id=":10248637691_5_0" index="0" allow="pedestrian delivery bicycle" speed="3.65" length="4.67" shape="109.10,491.14 109.05,492.58 108.58,493.34 107.69,493.43 106.38,492.83"/>
    </edge>
    <edge id=":10248637691_6" function="internal">
        <lane id=":10248637691_6_0" index="0" allow="pedestrian delivery bicycle" speed="5.56" length="5.30" shape="106.26,497.70 106.99,496.66 107.25,495.50 107.05,494.22 106.38,492.83"/>
    </edge>
    <edge id=":10248637691_7" function="internal">
        <lane id=":10248637691_7_0" index="0" allow="pedestrian delivery bicycle" speed="5.56" length="9.06" shape="106.26,497.70 108.16,495.81 109.55,494.60 111.07,493.56 113.36,492.16"/>
    </edge>
    <edge id=":10248637691_8" function="internal">
        <lane id=":10248637691_8_0" index="0" allow="pedestrian delivery bicycle" speed="3.65" length="4.67" shape="106.26,497.70 107.67,497.41 108.52,497.68 108.81,498.52 108.54,499.94"/>
    </edge>
    <edge id=":10248637692_0" function="internal">
        <lane id=":10248637692_0_0" index="0" allow="pedestrian delivery bicycle" speed="6.08" length="9.04" shape="107.01,501.50 104.98,503.06 103.06,503.46 101.26,502.69 99.57,500.77"/>
    </edge>
    <edge id=":10248637692_1" function="internal">
        <lane id=":10248637692_1_0" index="0" allow="pedestrian delivery bicycle" speed="3.91" length="3.01" shape="102.24,499.02 102.81,499.66 103.41,499.92 104.05,499.78 104.73,499.27"/>
    </edge>
    <edge id=":10248637692_2" function="internal">
        <lane id=":10248637692_2_0" index="0" disallow="tram rail_urban rail rail_electric rail_fast ship container cable_car subway aircraft wheelchair scooter drone" speed="3.65" length="4.67" shape="102.24,499.02 102.23,500.46 101.78,501.24 100.89,501.34 99.57,500.77"/>
    </edge>
    <edge id=":10248637693_0" function="internal">
        <lane id=":10248637693_0_0" index="0" allow="pedestrian delivery bicycle" speed="4.60" length="5.13" shape="96.73,477.28 95.72,476.02 94.72,475.49 93.72,475.70 92.74,476.64"/>
    </edge>
    <edge id=":10248637693_1" function="internal">
        <lane id=":10248637693_1_0" index="0" allow="pedestrian delivery bicycle" speed="5.56" length="11.35" shape="96.73,477.28 95.27,474.19 94.97,471.50 95.84,469.21 97.88,467.33"/>
    </edge>
    <edge id=":10248637693_2" function="internal">
        <lane id=":10248637693_2_0" index="0" allow="pedestrian delivery bicycle" speed="3.65" length="4.67" shape="96.73,477.28 96.78,475.84 97.24,475.08 98.14,475.00 99.45,475.60"/>
    </edge>
    <edge id=":10248637693_3" function="internal">
        <lane id=":10248637693_3_0" index="0" allow="pedestrian delivery bicycle" speed="5.56" length="6.26" shape="99.61,470.03 98.63,471.00 98.27,472.25 98.55,473.78 99.45,475.60"/>
    </edge>
    <edge id=":10248637693_4" function="internal">
        <lane id=":10248637693_4_0" index="0" allow="pedestrian delivery bicycle" speed="5.56" length="9.63" shape="99.61,470.03 97.25,471.61 95.74,472.87 94.46,474.36 92.74,476.64"/>
    </edge>
    <edge id=":10248637693_5" function="internal">
        <lane id=":10248637693_5_0" index="0" allow="pedestrian delivery bicycle" speed="3.65" length="4.67" shape="99.61,470.03 98.17,470.00 97.40,469.54 97.31,468.65 97.88,467.33"/>
    </edge>
    <edge id=":10248637693_6" function="internal">
        <lane id=":10248637693_6_0" index="0" allow="pedestrian delivery bicycle" speed="5.56" length="10.77" shape="90.18,474.72 92.06,472.26 93.58,470.54 95.33,469.06 97.88,467.33"/>
    </edge>
    <edge id=":10248637693_7" function="internal">
        <lane id=":10248637693_7_0" index="0" allow="pedestrian delivery bicycle" speed="5.56" length="11.85" shape="90.18,474.72 92.55,472.39 94.88,471.76 97.18,472.83 99.45,475.60"/>
    </edge>
    <edge id=":10248637693_8" function="internal">
        <lane id=":10248637693_8_0" index="0" allow="pedestrian delivery bicycle" speed="3.65" length="4.67" shape="90.18,474.72 91.54,474.24 92.42,474.40 92.82,475.20 92.74,476.64"/>
    </edge>
    <edge id=":10248637694_0" function="internal">
        <lane id=":10248637694_0_0" index="0" allow="pedestrian delivery bicycle" speed="5.56" length="5.72" shape="131.06,433.79 129.66,434.88 128.62,435.97 127.95,437.07 127.63,438.17"/>
    </edge>
    <edge id=":10248637694_1" function="internal">
        <lane id=":10248637694_1_0" index="0" allow="pedestrian delivery bicycle" speed="5.56" length="9.95" shape="131.06,433.79 128.63,435.00 126.38,435.16 124.29,434.29 122.37,432.37"/>
    </edge>
    <edge id=":10248637694_2" function="internal">
        <lane id=":10248637694_2_0" index="0" allow="pedestrian delivery bicycle" speed="3.65" length="4.67" shape="131.06,433.79 129.62,433.81 128.84,433.38 128.71,432.49 129.25,431.15"/>
    </edge>
    <edge id=":10248637694_3" function="internal">
        <lane id=":10248637694_3_0" index="0" allow="pedestrian delivery bicycle" speed="5.09" length="4.95" shape="124.92,430.45 125.88,431.40 126.92,431.84 128.04,431.75 129.25,431.15"/>
    </edge>
    <edge id=":10248637694_4" function="internal">
        <lane id=":10248637694_4_0" index="0" allow="pedestrian delivery bicycle" speed="5.56" length="8.54" shape="124.92,430.45 126.45,432.46 127.38,434.01 127.76,435.71 127.63,438.17"/>
    </edge>
    <edge id=":10248637694_5" function="internal">
        <lane id=":10248637694_5_0" index="0" allow="pedestrian delivery bicycle" speed="3.65" length="4.67" shape="124.92,430.45 125.01,431.89 124.61,432.69 123.73,432.85 122.37,432.37"/>
    </edge>
    <edge id=":10248637694_6" function="internal">
        <lane id=":10248637694_6_0" index="0" allow="pedestrian delivery bicycle" speed="5.56" length="6.07" shape="124.45,437.80 124.52,436.06 124.20,434.87 123.48,433.79 122.37,432.37"/>
    </edge>
    <edge id=":10248637694_7" function="internal">
        <lane id=":10248637694_7_0" index="0" allow="pedestrian delivery bicycle" speed="5.56" length="8.43" shape="124.45,437.80 124.92,436.01 125.87,434.31 127.31,432.69 129.25,431.15"/>
    </edge>
    <edge id=":10248637694_8" function="internal">
        <lane id=":10248637694_8_0" index="0" allow="pedestrian delivery bicycle" speed="3.65" length="4.67" shape="124.45,437.80 125.39,436.70 126.23,436.40 126.98,436.89 127.63,438.17"/>
    </edge>
    <edge id=":10248637699_0" function="internal">
        <lane id=":10248637699_0_0" index="0" allow="pedestrian delivery bicycle" speed="4.99" length="5.05" shape="158.83,418.55 157.93,417.48 156.92,416.98 155.78,417.03 154.53,417.65"/>
    </edge>
    <edge id=":10248637699_1" function="internal">
        <lane id=":10248637699_1_0" index="0" allow="pedestrian delivery bicycle" speed="5.56" length="9.41" shape="158.83,418.55 153.84,410.57"/>
    </edge>
    <edge id=":10248637699_2" function="internal">
        <lane id=":10248637699_2_0" index="0" allow="pedestrian delivery bicycle" speed="3.65" length="4.67" shape="158.83,418.55 158.87,417.11 159.34,416.35 160.23,416.26 161.55,416.86"/>
    </edge>
    <edge id=":10248637699_3" function="internal">
        <lane id=":10248637699_3_0" index="0" allow="pedestrian delivery bicycle" speed="5.56" length="9.42" shape="156.55,408.87 161.55,416.86"/>
    </edge>
    <edge id=":10248637699_4" function="internal">
        <lane id=":10248637699_4_0" index="0" allow="pedestrian delivery bicycle" speed="5.56" length="10.18" shape="156.55,408.87 157.64,411.36 157.67,413.65 156.63,415.75 154.53,417.65"/>
    </edge>
    <edge id=":10248637699_5" function="internal">
        <lane id=":10248637699_5_0" index="0" allow="pedestrian delivery bicycle" speed="3.65" length="4.67" shape="156.55,408.87 156.51,410.31 156.05,411.07 155.16,411.16 153.84,410.57"/>
    </edge>
    <edge id=":10248637699_6" function="internal">
        <lane id=":10248637699_6_0" index="0" allow="pedestrian delivery bicycle" speed="5.19" length="5.18" shape="152.72,415.02 153.82,414.03 154.37,412.96 154.38,411.81 153.84,410.57"/>
    </edge>
    <edge id=":10248637699_7" function="internal">
        <lane id=":10248637699_7_0" index="0" allow="pedestrian delivery bicycle" speed="5.56" length="10.39" shape="152.72,415.02 155.29,413.75 157.62,413.63 159.70,414.67 161.55,416.86"/>
    </edge>
    <edge id=":10248637699_8" function="internal">
        <lane id=":10248637699_8_0" index="0" allow="pedestrian delivery bicycle" speed="3.65" length="4.67" shape="152.72,415.02 154.16,415.00 154.95,415.43 155.07,416.31 154.53,417.65"/>
    </edge>
    <edge id=":10248637700_0" function="internal">
        <lane id=":10248637700_0_0" index="0" allow="pedestrian delivery bicycle" speed="5.05" length="5.07" shape="146.78,399.30 145.88,398.23 144.86,397.70 143.72,397.72 142.47,398.29"/>
    </edge>
    <edge id=":10248637700_1" function="internal">
        <lane id=":10248637700_1_0" index="0" allow="pedestrian delivery bicycle" speed="5.56" length="9.70" shape="146.78,399.30 145.59,396.73 145.44,394.49 146.32,392.57 148.25,390.98"/>
    </edge>
    <edge id=":10248637700_2" function="internal">
        <lane id=":10248637700_2_0" index="0" allow="pedestrian delivery bicycle" speed="3.65" length="4.67" shape="146.78,399.30 146.82,397.86 147.29,397.10 148.18,397.01 149.50,397.60"/>
    </edge>
    <edge id=":10248637700_3" function="internal">
        <lane id=":10248637700_3_0" index="0" allow="pedestrian delivery bicycle" speed="4.75" length="4.42" shape="149.86,393.74 149.07,394.43 148.75,395.30 148.89,396.36 149.50,397.60"/>
    </edge>
    <edge id=":10248637700_4" function="internal">
        <lane id=":10248637700_4_0" index="0" allow="pedestrian delivery bicycle" speed="5.56" length="8.68" shape="149.86,393.74 142.47,398.29"/>
    </edge>
    <edge id=":10248637700_5" function="internal">
        <lane id=":10248637700_5_0" index="0" allow="pedestrian delivery bicycle" speed="3.65" length="4.67" shape="149.86,393.74 148.42,393.66 147.67,393.17 147.62,392.27 148.25,390.98"/>
    </edge>
    <edge id=":10248637700_6" function="internal">
        <lane id=":10248637700_6_0" index="0" allow="pedestrian delivery bicycle" speed="5.56" length="8.81" shape="140.74,395.59 148.25,390.98"/>
    </edge>
    <edge id=":10248637700_7" function="internal">
        <lane id=":10248637700_7_0" index="0" allow="pedestrian delivery bicycle" speed="5.56" length="10.27" shape="140.74,395.59 143.29,394.43 145.60,394.38 147.67,395.44 149.50,397.60"/>
    </edge>
    <edge id=":10248637700_8" function="internal">
        <lane id=":10248637700_8_0" index="0" allow="pedestrian delivery bicycle" speed="3.65" length="4.67" shape="140.74,395.59 142.18,395.62 142.95,396.08 143.05,396.97 142.47,398.29"/>
    </edge>
    <edge id=":10248649372_0" function="internal">
        <lane id=":10248649372_0_0" index="0" allow="pedestrian delivery bicycle" speed="3.65" length="4.67" shape="8.75,506.05 7.30,506.07 6.52,505.63 6.40,504.75 6.94,503.41"/>
    </edge>
    <edge id=":10248649373_0" function="internal">
        <lane id=":10248649373_0_0" index="0" allow="pedestrian delivery bicycle" speed="3.65" length="4.67" shape="56.87,469.28 58.32,469.26 59.10,469.70 59.22,470.58 58.68,471.92"/>
    </edge>
    <edge id=":10248662466_0" function="internal">
        <lane id=":10248662466_0_0" index="0" allow="pedestrian delivery bicycle" speed="4.77" length="4.38" shape="153.59,395.16 152.78,394.06 151.92,393.44 151.00,393.30 150.03,393.64"/>
    </edge>
    <edge id=":10248662466_1" function="internal">
        <lane id=":10248662466_1_0" index="0" allow="pedestrian delivery bicycle" speed="5.56" length="10.03" shape="153.59,395.16 152.54,392.60 152.50,390.30 153.49,388.25 155.49,386.46"/>
    </edge>
    <edge id=":10248662466_2" function="internal">
        <lane id=":10248662466_2_0" index="0" allow="pedestrian delivery bicycle" speed="3.65" length="4.67" shape="153.59,395.16 153.68,393.72 154.17,392.98 155.06,392.92 156.36,393.56"/>
    </edge>
    <edge id=":10248662466_3" function="internal">
        <lane id=":10248662466_3_0" index="0" allow="pedestrian delivery bicycle" speed="5.17" length="5.09" shape="157.26,389.13 156.26,390.03 155.78,391.07 155.81,392.24 156.36,393.56"/>
    </edge>
    <edge id=":10248662466_4" function="internal">
        <lane id=":10248662466_4_0" index="0" allow="pedestrian delivery bicycle" speed="5.56" length="8.52" shape="157.26,389.13 150.03,393.64"/>
    </edge>
    <edge id=":10248662466_5" function="internal">
        <lane id=":10248662466_5_0" index="0" allow="pedestrian delivery bicycle" speed="3.65" length="4.67" shape="157.26,389.13 155.82,389.12 155.04,388.68 154.93,387.79 155.49,386.46"/>
    </edge>
    <edge id=":10248662466_6" function="internal">
        <lane id=":10248662466_6_0" index="0" allow="pedestrian delivery bicycle" speed="5.56" length="8.34" shape="148.42,390.88 155.49,386.46"/>
    </edge>
    <edge id=":10248662466_7" function="internal">
        <lane id=":10248662466_7_0" index="0" allow="pedestrian delivery bicycle" speed="5.56" length="9.54" shape="148.42,390.88 150.71,390.00 152.79,390.16 154.67,391.34 156.36,393.56"/>
    </edge>
    <edge id=":10248662466_8" function="internal">
        <lane id=":10248662466_8_0" index="0" allow="pedestrian delivery bicycle" speed="3.65" length="4.67" shape="148.42,390.88 149.86,390.97 150.61,391.45 150.67,392.35 150.03,393.64"/>
    </edge>
    <edge id=":10248662469_0" function="internal">
        <lane id=":10248662469_0_0" index="0" allow="pedestrian delivery bicycle" speed="5.02" length="5.02" shape="187.15,373.66 186.30,372.58 185.30,372.04 184.17,372.05 182.90,372.59"/>
    </edge>
    <edge id=":10248662469_1" function="internal">
        <lane id=":10248662469_1_0" index="0" allow="pedestrian delivery bicycle" speed="5.56" length="10.16" shape="187.15,373.66 186.09,371.07 186.08,368.76 187.14,366.72 189.27,364.97"/>
    </edge>
    <edge id=":10248662469_2" function="internal">
        <lane id=":10248662469_2_0" index="0" allow="pedestrian delivery bicycle" speed="3.65" length="4.67" shape="187.15,373.66 187.24,372.22 187.73,371.47 188.62,371.41 189.92,372.05"/>
    </edge>
    <edge id=":10248662469_3" function="internal">
        <lane id=":10248662469_3_0" index="0" allow="pedestrian delivery bicycle" speed="5.10" length="5.07" shape="190.93,367.70 189.88,368.57 189.36,369.59 189.38,370.74 189.92,372.05"/>
    </edge>
    <edge id=":10248662469_4" function="internal">
        <lane id=":10248662469_4_0" index="0" allow="pedestrian delivery bicycle" speed="5.56" length="9.40" shape="190.93,367.70 182.90,372.59"/>
    </edge>
    <edge id=":10248662469_5" function="internal">
        <lane id=":10248662469_5_0" index="0" allow="pedestrian delivery bicycle" speed="3.65" length="4.67" shape="190.93,367.70 189.49,367.64 188.73,367.17 188.66,366.27 189.27,364.97"/>
    </edge>
    <edge id=":10248662469_6" function="internal">
        <lane id=":10248662469_6_0" index="0" allow="pedestrian delivery bicycle" speed="5.56" length="9.40" shape="181.24,369.86 189.27,364.97"/>
    </edge>
    <edge id=":10248662469_7" function="internal">
        <lane id=":10248662469_7_0" index="0" allow="pedestrian delivery bicycle" speed="5.56" length="10.25" shape="181.24,369.86 183.82,368.75 186.13,368.74 188.16,369.84 189.92,372.05"/>
    </edge>
    <edge id=":10248662469_8" function="internal">
        <lane id=":10248662469_8_0" index="0" allow="pedestrian delivery bicycle" speed="3.65" length="4.67" shape="181.24,369.86 182.68,369.92 183.44,370.39 183.51,371.28 182.90,372.59"/>
    </edge>
    <edge id=":10248662472_0" function="internal">
        <lane id=":10248662472_0_0" index="0" allow="pedestrian delivery bicycle" speed="5.04" length="5.00" shape="281.09,338.26 280.19,337.22 279.18,336.73 278.05,336.76 276.81,337.34"/>
    </edge>
    <edge id=":10248662472_1" function="internal">
        <lane id=":10248662472_1_0" index="0" allow="pedestrian delivery bicycle" speed="5.56" length="9.37" shape="281.09,338.26 276.06,330.35"/>
    </edge>
    <edge id=":10248662472_2" function="internal">
        <lane id=":10248662472_2_0" index="0" allow="pedestrian delivery bicycle" speed="3.65" length="4.67" shape="281.09,338.26 281.11,336.81 281.57,336.04 282.46,335.94 283.78,336.52"/>
    </edge>
    <edge id=":10248662472_3" function="internal">
        <lane id=":10248662472_3_0" index="0" allow="pedestrian delivery bicycle" speed="5.56" length="9.32" shape="278.77,328.65 283.78,336.52"/>
    </edge>
    <edge id=":10248662472_4" function="internal">
        <lane id=":10248662472_4_0" index="0" allow="pedestrian delivery bicycle" speed="5.56" length="10.12" shape="278.77,328.65 279.89,331.17 279.93,333.46 278.91,335.52 276.81,337.34"/>
    </edge>
    <edge id=":10248662472_5" function="internal">
        <lane id=":10248662472_5_0" index="0" allow="pedestrian delivery bicycle" speed="3.65" length="4.67" shape="278.77,328.65 278.73,330.09 278.27,330.85 277.38,330.94 276.06,330.35"/>
    </edge>
    <edge id=":10248662472_6" function="internal">
        <lane id=":10248662472_6_0" index="0" allow="pedestrian delivery bicycle" speed="5.07" length="5.02" shape="275.07,334.65 276.11,333.74 276.63,332.73 276.61,331.59 276.06,330.35"/>
    </edge>
    <edge id=":10248662472_7" function="internal">
        <lane id=":10248662472_7_0" index="0" allow="pedestrian delivery bicycle" speed="5.56" length="10.16" shape="275.07,334.65 277.60,333.48 279.89,333.41 281.95,334.42 283.78,336.52"/>
    </edge>
    <edge id=":10248662472_8" function="internal">
        <lane id=":10248662472_8_0" index="0" allow="pedestrian delivery bicycle" speed="3.65" length="4.67" shape="275.07,334.65 276.51,334.67 277.28,335.12 277.38,336.01 276.81,337.34"/>
    </edge>
    <edge id=":10248662474_0" function="internal">
        <lane id=":10248662474_0_0" index="0" allow="pedestrian delivery bicycle" speed="5.02" length="5.02" shape="276.33,407.81 275.47,406.73 274.48,406.18 273.35,406.18 272.08,406.72"/>
    </edge>
    <edge id=":10248662474_1" function="internal">
        <lane id=":10248662474_1_0" index="0" allow="pedestrian delivery bicycle" speed="5.56" length="10.12" shape="276.33,407.81 275.27,405.22 275.25,402.91 276.29,400.87 278.36,399.10"/>
    </edge>
    <edge id=":10248662474_2" function="internal">
        <lane id=":10248662474_2_0" index="0" allow="pedestrian delivery bicycle" speed="3.65" length="4.67" shape="276.33,407.81 276.42,406.37 276.91,405.62 277.80,405.56 279.09,406.20"/>
    </edge>
    <edge id=":10248662474_3" function="internal">
        <lane id=":10248662474_3_0" index="0" allow="pedestrian delivery bicycle" speed="5.13" length="5.09" shape="280.06,401.81 279.04,402.69 278.53,403.72 278.55,404.88 279.09,406.20"/>
    </edge>
    <edge id=":10248662474_4" function="internal">
        <lane id=":10248662474_4_0" index="0" allow="pedestrian delivery bicycle" speed="5.56" length="9.37" shape="280.06,401.81 272.08,406.72"/>
    </edge>
    <edge id=":10248662474_5" function="internal">
        <lane id=":10248662474_5_0" index="0" allow="pedestrian delivery bicycle" speed="3.65" length="4.67" shape="280.06,401.81 278.62,401.77 277.86,401.30 277.77,400.41 278.36,399.10"/>
    </edge>
    <edge id=":10248662474_6" function="internal">
        <lane id=":10248662474_6_0" index="0" allow="pedestrian delivery bicycle" speed="5.56" length="9.32" shape="270.43,403.98 278.36,399.10"/>
    </edge>
    <edge id=":10248662474_7" function="internal">
        <lane id=":10248662474_7_0" index="0" allow="pedestrian delivery bicycle" speed="5.56" length="10.24" shape="270.43,403.98 273.02,402.88 275.33,402.89 277.35,403.99 279.09,406.20"/>
    </edge>
    <edge id=":10248662474_8" function="internal">
        <lane id=":10248662474_8_0" index="0" allow="pedestrian delivery bicycle" speed="3.65" length="4.67" shape="270.43,403.98 271.87,404.04 272.62,404.52 272.70,405.41 272.08,406.72"/>
    </edge>
    <edge id=":10248662475_0" function="internal">
        <lane id=":10248662475_0_0" index="0" disallow="tram rail_urban rail rail_electric rail_fast ship container cable_car subway aircraft wheelchair scooter drone" speed="13.89" length="9.40" shape="288.56,416.00 280.58,420.98"/>
    </edge>
    <edge id=":10248662475_1" function="internal">
        <lane id=":10248662475_1_0" index="0" allow="pedestrian delivery bicycle" speed="6.84" length="3.29" shape="288.56,416.00 285.96,417.14 285.51,417.15"/>
    </edge>
    <edge id=":10248662475_7" function="internal">
        <lane id=":10248662475_7_0" index="0" allow="pedestrian delivery bicycle" speed="6.84" length="7.03" shape="285.51,417.15 283.64,417.17 281.60,416.07 279.84,413.84"/>
    </edge>
    <edge id=":10248662475_2" function="internal">
        <lane id=":10248662475_2_0" index="0" allow="pedestrian delivery bicycle" speed="5.01" length="5.04" shape="282.60,412.23 283.46,413.32 284.46,413.85 285.59,413.84 286.86,413.28"/>
    </edge>
    <edge id=":10248662475_3" function="internal">
        <lane id=":10248662475_3_0" index="0" allow="pedestrian delivery bicycle" speed="6.94" length="10.17" shape="282.60,412.23 283.67,414.84 283.70,417.16 282.67,419.21 280.58,420.98"/>
    </edge>
    <edge id=":10248662475_4" function="internal">
        <lane id=":10248662475_4_0" index="0" allow="pedestrian delivery bicycle" speed="3.65" length="4.67" shape="282.60,412.23 282.51,413.67 282.02,414.42 281.13,414.47 279.84,413.84"/>
    </edge>
    <edge id=":10248662475_5" function="internal">
        <lane id=":10248662475_5_0" index="0" allow="pedestrian delivery bicycle" speed="5.15" length="5.13" shape="278.89,418.27 279.92,417.38 280.42,416.35 280.39,415.17 279.84,413.84"/>
    </edge>
    <edge id=":10248662475_6" function="internal">
        <lane id=":10248662475_6_0" index="0" disallow="tram rail_urban rail rail_electric rail_fast ship container cable_car subway aircraft wheelchair scooter drone" speed="13.89" length="9.40" shape="278.89,418.27 286.86,413.28"/>
    </edge>
    <edge id=":10248662477_0" function="internal">
        <lane id=":10248662477_0_0" index="0" allow="pedestrian delivery bicycle" speed="5.56" length="9.40" shape="253.25,352.56 245.35,357.66"/>
    </edge>
    <edge id=":10248662477_1" function="internal">
        <lane id=":10248662477_1_0" index="0" allow="pedestrian delivery bicycle" speed="5.56" length="10.16" shape="253.25,352.56 250.74,353.71 248.44,353.78 246.37,352.77 244.51,350.68"/>
    </edge>
    <edge id=":10248662477_2" function="internal">