<?xml version="1.0" encoding="UTF-8"?>

<!-- generated on 2025-03-13 16:23:55 by Eclipse SUMO duarouter Version 1.22.0
<duarouterConfiguration xmlns:xsi="http://www.w3.org/2001/XMLSchema-instance" xsi:noNamespaceSchemaLocation="http://sumo.dlr.de/xsd/duarouterConfiguration.xsd">

    <input>
        <net-file value="osm.net.xml"/>
        <route-files value="osm.passenger.trips.xml"/>
    </input>

    <output>
        <output-file value="osm.rou.xml"/>
    </output>

</duarouterConfiguration>
-->

<routes xmlns:xsi="http://www.w3.org/2001/XMLSchema-instance" xsi:noNamespaceSchemaLocation="http://sumo.dlr.de/xsd/routes_file.xsd">
    <vehicle id="7" depart="7.00">
        <route edges="563679820#2 563679820#3 563679820#4 563679820#5 563679820#6 563679820#8 563679820#9 563679820#10 563679820#11 563974731#0 563974731#1 80499778#2 370761286#1 370761286#2 370761286#3 370761286#4"/>
    </vehicle>
    <vehicle id="13" depart="13.00">
        <route edges="-24582919#0 24582919#0 24582919#1 -24582919#1"/>
    </vehicle>
    <vehicle id="14" depart="14.00">
        <route edges="700293880 -74851423#1 -74851423#0 -700293878 -291266017#0 291266019#1 1312753970#0 611866603#0 611866603#2 523568284#3-AddedOnRampEdge"/>
    </vehicle>
    <vehicle id="17" depart="17.00">
        <route edges="1312753970#0 1312753970#1 80499778#0 80499778#2 370761286#1 370761286#2 370761286#3 370761286#4 370761286#5"/>
    </vehicle>
    <vehicle id="21" depart="21.00">
        <route edges="-686814926 -74851423#0 -700293878 -291266017#0 291266019#1 1312753970#0 1312753970#1 80499778#0 80499778#2 370761286#1 370761286#2 370761286#3 370761286#4 370761286#5 370761286#6 370761286#7 370761286#8 1000448884#1 1000448884#2"/>
    </vehicle>
    <vehicle id="24" depart="24.00">
        <route edges="563679820#10 563679820#11 563974731#0 563974731#1 80499778#2 370761286#1 370761286#2 370761286#3 370761286#4 370761286#5 370761286#6 370761286#7 370761286#8 1000448884#1 1000448884#2 1300354437#1"/>
    </vehicle>
    <vehicle id="27" depart="27.00">
        <route edges="563679820#2 563679820#3 563679820#4 563679820#5 563679820#6 563679820#8 563679820#9 563679820#10 563679820#11 563679820#12 1312753971#0 553596950"/>
    </vehicle>
    <vehicle id="28" depart="28.00">
        <route edges="-291266017#2 -291266017#1 -291266017#0 291266019#1 1312753970#0 1312753970#1 996679780#2 563974735#0 563974735#1 563974735#3"/>
    </vehicle>
    <vehicle id="29" depart="29.00">
        <route edges="-291266017#0 291266019#1 1312753970#0 1312753970#1 1312753971#0"/>
    </vehicle>
    <vehicle id="39" depart="39.00">
        <route edges="-707566696#1 -707566696#0"/>
    </vehicle>
    <vehicle id="50" depart="50.00">
        <route edges="-1121142413#0 720546573#6 720546573#7 563974732#1 563974732#2 563974735#0"/>
    </vehicle>
    <vehicle id="51" depart="51.00">
        <route edges="563679820#8 563679820#9 563679820#10 563679820#11 563974731#0 563974731#1 80499778#2 370761286#1 370761286#2 370761286#3"/>
    </vehicle>
    <vehicle id="52" depart="52.00">
        <route edges="-707566696#1 -707566696#0 563679820#9 563679820#10 563679820#11"/>
    </vehicle>
    <vehicle id="53" depart="53.00">
        <route edges="-24582921#0 24582921#0"/>
    </vehicle>
    <vehicle id="55" depart="55.00">
        <route edges="707566696#3 707566696#4 -707566696#4"/>
    </vehicle>
    <vehicle id="60" depart="60.00">
        <route edges="578543603#0 578543603#1 578543603#2 578543603#3 80499778#0 80499778#2 370761286#1 370761286#2 370761286#3"/>
    </vehicle>
    <vehicle id="61" depart="61.00">
        <route edges="578543603#3 80499778#0 80499778#2 370761286#1"/>
    </vehicle>
    <vehicle id="63" depart="63.00">
        <route edges="-1121142413#1 -1121142413#0 720546573#6 720546573#7"/>
    </vehicle>
    <vehicle id="65" depart="65.00">
        <route edges="1000448884#3 1000448884#4 -164675827#2 -164675827#1"/>
    </vehicle>
    <vehicle id="66" depart="66.00">
        <route edges="707566696#3 707566696#4 -707566696#4 -707566696#3 -707566696#1 -707566696#0 563679820#9 563679820#10 563679820#11 563679820#12 80499778#0"/>
    </vehicle>
    <vehicle id="69" depart="69.00">
        <route edges="578543603#0 578543603#1 578543603#2 611866604#0 611866602#0 24582921#0 24582921#2 24582921#3 24582921#4 24582921#5 24582921#6 24582921#7 -24582921#7 -24582921#6 -24582921#5 -24582921#4"/>
    </vehicle>
    <vehicle id="71" depart="71.00">
        <route edges="-707566696#1 707566696#1"/>
    </vehicle>
    <vehicle id="74" depart="74.00">
        <route edges="-423563749#0 -24582919#2 1119548738#0 1119548738#1"/>
    </vehicle>
    <vehicle id="79" depart="79.00">
        <route edges="-686814926"/>
    </vehicle>
    <vehicle id="82" depart="82.00">
        <route edges="707566695#1 -707566696#0 563679820#9 563679820#10 563679820#11 563974731#0 563974731#1 80499778#2 80499778#3 80499778#4 80499778#5 -164675827#4"/>
    </vehicle>
    <vehicle id="93" depart="93.00">
        <route edges="707566695#1 707566696#1 707566696#3 707566696#4 -707566696#4 -707566696#3 -707566696#1"/>
    </vehicle>
    <vehicle id="94" depart="94.00">
        <route edges="-343654534#1 -343654534#0 343654534#0 343654534#1 343654534#2 563679820#1 563679820#2 563679820#3 563679820#4 563679820#5 563679820#6 563679820#8 563679820#9 563679820#10 563679820#11 563679820#12 1312753971#0 611866602#0 24582921#0 24582921#2 24582921#3 24582921#4"/>
    </vehicle>
    <vehicle id="101" depart="101.00">
        <route edges="700293880 -74851423#1 74851423#1 -700293880 -291266017#2"/>
    </vehicle>
    <vehicle id="103" depart="103.00">
        <route edges="164675827#2 164675827#4 -164675827#4 -164675827#2 -164675827#1"/>
    </vehicle>
    <vehicle id="104" depart="104.00">
        <route edges="1312753970#0 611866603#0 997761541#0"/>
    </vehicle>
    <vehicle id="113" depart="113.00">
        <route edges="291266019#0 291266017#0 291266017#1 291266017#2 700293880"/>
    </vehicle>
    <vehicle id="117" depart="117.00">
        <route edges="-700293878 -291266017#0 291266019#1 1312753970#0 1312753970#1 1312753971#0 611866602#0 24582921#0 24582921#2 24582921#3 24582921#4 24582921#5 24582921#6 24582921#7 -24582921#7 -24582921#6 -24582921#5 -24582921#4 -24582921#3"/>
    </vehicle>
    <vehicle id="118" depart="118.00">
        <route edges="707566696#5 -707566696#5 -707566696#4 -707566696#3 -707566696#1 -707566696#0"/>
    </vehicle>
    <vehicle id="124" depart="124.00">
        <route edges="563679820#6 563679820#8 563679820#9 563679820#10 563679820#11 563974731#0 563974731#1 80499778#2 80499778#3 -1300354437#1 1000448884#3 1000448884#4"/>
    </vehicle>
    <vehicle id="127" depart="127.00">
        <route edges="997761541#1 997761541#2"/>
    </vehicle>
    <vehicle id="130" depart="130.00">
        <route edges="707566696#4 -707566696#4 -707566696#3 -707566696#1 707566696#1 707566696#3"/>
    </vehicle>
    <vehicle id="137" depart="137.00">
        <route edges="-24582921#5 -24582921#4 -24582921#3 -24582921#2"/>
    </vehicle>
    <vehicle id="139" depart="139.00">
        <route edges="-707566696#3 -707566696#1 -707566696#0 563679820#9 563679820#10 563679820#11 563679820#12 1312753971#0 553596950"/>
    </vehicle>
    <vehicle id="155" depart="155.00">
        <route edges="720546573#1 -562499724#1"/>
    </vehicle>
    <vehicle id="160" depart="160.00">
        <route edges="707566696#0 -707566696#0 563679820#9 563679820#10 563679820#11 563679820#12 996679780#2"/>
    </vehicle>
    <vehicle id="162" depart="162.00">
        <route edges="-1121142413#2 -1121142413#1 -1121142413#0 720546573#6 720546573#7 563974732#1 563974732#2 563974735#0 563974735#1 563974735#3 563974735#5"/>
    </vehicle>
    <vehicle id="163" depart="163.00">
        <route edges="1121142413#0 -1121142413#0 720546573#6 720546573#7"/>
    </vehicle>
    <vehicle id="167" depart="167.00">
        <route edges="707566696#1 707566696#3 707566696#4 707566695#0"/>
    </vehicle>
    <vehicle id="176" depart="176.00">
        <route edges="74851423#0 686814926 -291266017#1 -291266017#0 291266019#1 1312753970#0 1312753970#1 1312753971#0 611866602#0 24582921#0 24582921#2 24582921#3 24582921#4 24582921#5 24582921#6 24582921#7 -24582921#7 -24582921#6 -24582921#5 -24582921#4 -24582921#3 -24582921#2"/>
    </vehicle>
    <vehicle id="179" depart="179.00">
        <route edges="-24582921#0 24582921#0"/>
    </vehicle>
    <vehicle id="195" depart="195.00">
        <route edges="720546573#1 -562499724#1 -562499724#0 562499724#0"/>
    </vehicle>
    <vehicle id="198" depart="198.00">
        <route edges="24582919#1 24582919#2 423563749#0 423563749#1"/>
    </vehicle>
    <vehicle id="199" depart="199.00">
        <route edges="563679820#3 563679820#4 563679820#5 563679820#6 563679820#8 563679820#9 563679820#10 563679820#11 563679820#12 1312753971#0 611866602#0 24582921#0 24582921#2 24582921#3 24582921#4 24582921#5 24582921#6 24582921#7"/>
    </vehicle>
    <vehicle id="208" depart="208.00">
        <route edges="-707566695#0 -707566696#4 -707566696#3 -707566696#1 -707566696#0 563679820#9 563679820#10 563679820#11 563679820#12 996679780#2 563974735#0 563974735#1 24583592#0 24583592#1"/>
    </vehicle>
    <vehicle id="209" depart="209.00">
        <route edges="700293880 -74851423#1 -74851423#0 -700293878 -291266017#0 291266019#1 1312753970#0 1312753970#1 80499778#0 80499778#2 80499778#3 80499778#4 80499778#5 -164675827#4"/>
    </vehicle>
    <vehicle id="211" depart="211.00">
        <route edges="-343654534#2 707566695#1 -707566696#0 563679820#9 563679820#10 563679820#11 563974731#0 563974731#1"/>
    </vehicle>
    <vehicle id="215" depart="215.00">
        <route edges="-24582919#2 24582919#2"/>
    </vehicle>
    <vehicle id="216" depart="216.00">
        <route edges="-291266017#2 -291266017#1 -291266017#0 291266019#1 1312753970#0 1312753970#1 80499778#0 80499778#2 80499778#3"/>
    </vehicle>
    <vehicle id="217" depart="217.00">
        <route edges="343654534#1 343654534#2 563679820#1 563679820#2 563679820#3 563679820#4 563679820#5 563679820#6 563679820#8 563679820#9 563679820#10 563679820#11 563679820#12 523568284#1 523568284#3-AddedOnRampEdge 523568284#3 -1123316542"/>
    </vehicle>
    <vehicle id="224" depart="224.00">
        <route edges="665921717 1312753970#0 1312753970#1 80499778#0 80499778#2 370761286#1 370761286#2 370761286#3 370761286#4"/>
    </vehicle>
    <vehicle id="225" depart="225.00">
        <route edges="720546573#0 720546573#1 720546573#2 720546573#3 720546573#4 720546573#5 720546573#6 720546573#7 563974732#1 563974732#2 563974735#0 563974735#1 563974735#3 563974735#5 563974735#6"/>
    </vehicle>
    <vehicle id="227" depart="227.00">
        <route edges="-707566695#0 -707566696#4 -707566696#3 -707566696#1 -707566696#0 563679820#9 563679820#10"/>
    </vehicle>
    <vehicle id="230" depart="230.00">
        <route edges="-24582918#0 24582918#0 24582918#1 24582918#2 578543603#1 578543603#2 578543603#3 80499778#0 80499778#2 370761286#1 370761286#2 370761286#3 370761286#4 370761286#5 370761286#6 370761286#7 370761286#8 1000448884#1"/>
    </vehicle>
    <vehicle id="235" depart="235.00">
        <route edges="24582918#0 24582918#1 24582918#2 578543603#1 578543603#2 578543603#3 80499778#0 80499778#2 370761286#1 370761286#2 370761286#3 370761286#4"/>
    </vehicle>
    <vehicle id="239" depart="239.00">
        <route edges="707566695#0 -343654534#1 -343654534#0 570616026#1"/>
    </vehicle>
    <vehicle id="241" depart="241.00">
        <route edges="1121142413#3 1121142413#4 720546573#5 720546573#6 720546573#7 563974732#1 563974732#2 563974735#0 563974735#1 563974735#3 563974735#5 563974735#6 563974735#7 563974735#8"/>
    </vehicle>
    <vehicle id="242" depart="242.00">
        <route edges="707566695#0 343654534#2 563679820#1 563679820#2 563679820#3 563679820#4 563679820#5 563679820#6 563679820#8 563679820#9 563679820#10 563679820#11 563974731#0 563974731#1 80499778#2"/>
    </vehicle>
    <vehicle id="243" depart="243.00">
        <route edges="24582918#2 578543603#1 578543603#2 578543603#3 996679780#2 563974735#0 563974735#1 563974735#3 563974735#5 563974735#6 563974735#7"/>
    </vehicle>
    <vehicle id="249" depart="249.00">
        <route edges="24582921#6 24582921#7 -24582921#7 -24582921#6 -24582921#5 -24582921#4"/>
    </vehicle>
    <vehicle id="253" depart="253.00">
        <route edges="-24582921#5 -24582921#4 -24582921#3 -24582921#2 -24582921#0 24582921#0 24582921#2 24582921#3 24582921#4 24582921#5 24582921#6"/>
    </vehicle>
    <vehicle id="262" depart="262.00">
        <route edges="563679820#2 563679820#3 563679820#4 563679820#5 563679820#6 563679820#8 563679820#9 563679820#10 563679820#11 563679820#12 996679780#2 563974735#0 563974735#1 563974735#3 563974735#5 563974735#6 563974735#7 563974735#8"/>
    </vehicle>
    <vehicle id="264" depart="264.00">
        <route edges="-1121142413#1 -1121142413#0 720546573#6 720546573#7 563974732#1 563974732#2 563974735#0 563974735#1 24583592#0 24583592#1 -24583592#2 -24583592#0"/>
    </vehicle>
    <vehicle id="268" depart="268.00">
        <route edges="-291266017#1 -291266017#0 291266019#1 1312753970#0 1312753970#1 1312753971#0 553596950"/>
    </vehicle>
    <vehicle id="277" depart="277.00">
        <route edges="700293880 -74851423#1 -74851423#0 -700293878 -291266017#0 291266019#1 1312753970#0 611866603#0 611866603#2 523568284#3-AddedOnRampEdge"/>
    </vehicle>
    <vehicle id="282" depart="282.00">
        <route edges="700293880 -74851423#1 -74851423#0 -700293878 -291266017#0 291266019#1 1312753970#0 611866603#0"/>
    </vehicle>
    <vehicle id="287" depart="287.00">
        <route edges="-707566696#3 -707566696#1 -707566696#0 563679820#9 563679820#10 563679820#11 563679820#12 1312753971#0 611866602#0 611866602#1 611866602#2"/>
    </vehicle>
    <vehicle id="292" depart="292.00">
        <route edges="707566696#4 -707566696#4 -707566696#3 -707566696#1 -707566696#0"/>
    </vehicle>
    <vehicle id="300" depart="300.00">
        <route edges="-24582918#2 -24582918#1 -24582918#0 24582918#0 24582918#1 24582918#2 578543603#1 578543603#2 578543603#3 996679780#2 563974735#0"/>
    </vehicle>
    <vehicle id="310" depart="310.00">
        <route edges="-707566695#1 343654534#2 563679820#1 563679820#2 563679820#3 563679820#4 563679820#5 563679820#6 563679820#8 563679820#9 563679820#10 563679820#11 563679820#12 1312753971#0 611866602#0 24582921#0 24582921#2 24582921#3 24582921#4 24582921#5 24582921#6 24582921#7 -24582921#7 -24582921#6 -24582921#5 -24582921#4 -24582921#3"/>
    </vehicle>
    <vehicle id="311" depart="311.00">
        <route edges="-343654534#1 -343654534#0 343654534#0 343654534#1 343654534#2 563679820#1 563679820#2 563679820#3 563679820#4 563679820#5 563679820#6 563679820#8 563679820#9 563679820#10 563679820#11 563679820#12 1312753971#0 611866602#0 24582921#0 24582921#2 24582921#3 24582921#4 24582921#5 24582921#6 24582921#7 -24582921#7 -24582921#6 -24582921#5 -24582921#4 -24582921#3"/>
    </vehicle>
    <vehicle id="314" depart="314.00">
        <route edges="291266017#0 -291266017#0 291266019#1 1312753970#0 1312753970#1 996679780#2 563974735#0 563974735#1"/>
    </vehicle>
    <vehicle id="324" depart="324.00">
        <route edges="24582921#6 24582921#7 -24582921#7 -24582921#6 -24582921#5 -24582921#4 -24582921#3 -24582921#2 -24582921#0 24582921#0 24582921#2"/>
    </vehicle>
    <vehicle id="325" depart="325.00">
        <route edges="-343654534#0 343654534#0 343654534#1 343654534#2 563679820#1 563679820#2 563679820#3 563679820#4 563679820#5 563679820#6 563679820#8 563679820#9 563679820#10 563679820#11 563974731#0 563974731#1 80499778#2 80499778#3 -1300354437#1"/>
    </vehicle>
    <vehicle id="326" depart="326.00">
        <route edges="74851423#0 686814926 -291266017#1 -291266017#0 291266019#1 1312753970#0 1312753970#1 996679780#2 563974735#0 563974735#1 24583592#0 24583592#1"/>
    </vehicle>
    <vehicle id="330" depart="330.00">
        <route edges="370761286#7 370761286#8 1000448884#1 1000448884#2 1000448884#3 1000448884#4"/>
    </vehicle>
    <vehicle id="332" depart="332.00">
        <route edges="578543603#0 578543603#1 578543603#2 611866604#0 553596950"/>
    </vehicle>
    <vehicle id="334" depart="334.00">
        <route edges="343654534#1 343654534#2 563679820#1 563679820#2 563679820#3 563679820#4 563679820#5 563679820#6 563679820#8 563679820#9 563679820#10 563679820#11 563679820#12 1312753971#0 611866602#0 24582921#0 24582921#2 24582921#3 24582921#4"/>
    </vehicle>
    <vehicle id="337" depart="337.00">
        <route edges="563679820#0 563679820#1 563679820#2 563679820#3 563679820#4 563679820#5 563679820#6 563679820#8 563679820#9 563679820#10 563679820#11 563679820#12 1312753971#0 553596950"/>
    </vehicle>
    <vehicle id="354" depart="354.00">
        <route edges="-74851423#0 -700293878 -291266017#0 291266019#1 1312753970#0 1312753970#1 1312753971#0 611866602#0 24582921#0 24582921#2 24582921#3 24582921#4 24582921#5 24582921#6 24582921#7 -24582921#7 -24582921#6 -24582921#5 -24582921#4"/>
    </vehicle>
    <vehicle id="355" depart="355.00">
        <route edges="563974731#0 563974731#1"/>
    </vehicle>
    <vehicle id="356" depart="356.00">
        <route edges="74851423#0 686814926 291266017#2 291266017#3"/>
    </vehicle>
    <vehicle id="363" depart="363.00">
        <route edges="563679820#6 563679820#8 707566696#0 707566696#1 707566696#3 707566696#4 707566696#5 -707566696#5"/>
    </vehicle>
    <vehicle id="364" depart="364.00">
        <route edges="-1121142414 -1121142413#0 720546573#6 720546573#7 563974732#1 563974732#2 563974735#0 563974735#1 563974735#3 563974735#5 563974735#6 563974735#7 563974735#8"/>
    </vehicle>
    <vehicle id="369" depart="369.00">
        <route edges="1121142413#3 -1121142414 1121142413#1 1121142413#2"/>
    </vehicle>
    <vehicle id="370" depart="370.00">
        <route edges="563679820#5 563679820#6 563679820#8 707566696#0 707566696#1 707566696#3 707566696#4 707566695#0"/>
    </vehicle>
    <vehicle id="372" depart="372.00">
        <route edges="-74851423#0 -700293878 -291266017#0 291266019#1 1312753970#0 1312753970#1 80499778#0"/>
    </vehicle>
    <vehicle id="375" depart="375.00">
        <route edges="1076627690 996679781#0 80499778#0 80499778#2 80499778#3 80499778#4 80499778#5"/>
    </vehicle>
    <vehicle id="379" depart="379.00">
        <route edges="-343654534#1 -343654534#0 343654534#0 343654534#1 343654534#2 563679820#1 563679820#2 563679820#3 563679820#4 563679820#5 563679820#6 563679820#8 563679820#9 563679820#10 563679820#11 563974731#0 563974731#1 80499778#2 370761286#1 370761286#2 370761286#3 370761286#4 370761286#5 370761286#6 370761286#7 370761286#8 1000448884#1 1000448884#2 1300354437#1"/>
    </vehicle>
    <vehicle id="389" depart="389.00">
        <route edges="24582921#5 24582921#6 24582921#7 -24582921#7 -24582921#6 -24582921#5 -24582921#4 -24582921#3 -24582921#2"/>
    </vehicle>
    <vehicle id="396" depart="396.00">
        <route edges="707566696#3 707566696#4 707566695#0 707566695#1"/>
    </vehicle>
    <vehicle id="399" depart="399.00">
        <route edges="291266019#1 1312753970#0 611866603#0"/>
    </vehicle>
    <vehicle id="400" depart="400.00">
        <route edges="-707566696#5 -707566696#4 -707566696#3 -707566696#1 -707566696#0 563679820#9 563679820#10 563679820#11 563974731#0 563974731#1 80499778#2 80499778#3 -1300354437#1 1000448884#3"/>
    </vehicle>
    <vehicle id="402" depart="402.00">
        <route edges="291266017#1 -291266017#1 -291266017#0 291266019#1 1312753970#0 1312753970#1 996679780#2 563974735#0 563974735#1 24583592#0 24583592#1 -24583592#2 -24583592#0"/>
    </vehicle>
    <vehicle id="406" depart="406.00">
        <route edges="-343654534#1 -343654534#0 343654534#0 343654534#1 343654534#2 563679820#1 563679820#2 563679820#3 563679820#4 563679820#5 563679820#6 563679820#8 563679820#9 563679820#10 563679820#11 563974731#0 563974731#1"/>
    </vehicle>
    <vehicle id="415" depart="415.00">
        <route edges="707566696#1 707566696#3 707566696#4 -707566696#4 -707566696#3 -707566696#1 -707566696#0 563679820#9 563679820#10 563679820#11 563679820#12 1312753971#0 611866602#0 24582921#0 24582921#2"/>
    </vehicle>
    <vehicle id="416" depart="416.00">
        <route edges="343654534#2 563679820#1 563679820#2 563679820#3 563679820#4 563679820#5 563679820#6 563679820#8 563679820#9 563679820#10 563679820#11 563679820#12 1312753971#0 611866602#0 24582921#0 24582921#2 24582921#3 24582921#4 24582921#5"/>
    </vehicle>
    <vehicle id="422" depart="422.00">
        <route edges="707566695#0 707566695#1"/>
    </vehicle>
    <vehicle id="430" depart="430.00">
        <route edges="707566696#1 707566696#3 707566696#4 -707566696#4 -707566696#3 -707566696#1 -707566696#0 563679820#9 563679820#10 563679820#11 563679820#12 1312753971#0 611866602#0 24582921#0 24582921#2 24582921#3"/>
    </vehicle>
    <vehicle id="433" depart="433.00">
        <route edges="-74851423#1 -74851423#0 -700293878 -291266017#0 291266019#1 1312753970#0 1312753970#1"/>
    </vehicle>
    <vehicle id="439" depart="439.00">
        <route edges="-24582921#7 -24582921#6 -24582921#5 -24582921#4 -24582921#3 -24582921#2 -24582921#0 24582921#0 24582921#2 24582921#3 24582921#4 24582921#5 24582921#6"/>
    </vehicle>
    <vehicle id="440" depart="440.00">
        <route edges="-707566695#1 -707566695#0 -707566696#4 -707566696#3"/>
    </vehicle>
    <vehicle id="452" depart="452.00">
        <route edges="-707566696#4 -707566696#3 -707566696#1 -707566696#0 563679820#9 563679820#10 563679820#11 563974731#0 563974731#1 80499778#2 370761286#1 370761286#2 370761286#3 370761286#4 370761286#5 370761286#6 370761286#7 370761286#8"/>
    </vehicle>
    <vehicle id="453" depart="453.00">
        <route edges="563679820#9 563679820#10 563679820#11 563679820#12 996679780#2 563974735#0 563974735#1 563974735#3 563974735#5 563974735#6"/>
    </vehicle>
    <vehicle id="456" depart="456.00">
        <route edges="-74851423#0 -700293878 -291266017#0 291266019#1 1312753970#0 1312753970#1 1312753971#0 611866602#0"/>
    </vehicle>
    <vehicle id="459" depart="459.00">
        <route edges="563679820#8 563679820#9 563679820#10 563679820#11 563679820#12 996679780#2 563974735#0"/>
    </vehicle>
    <vehicle id="465" depart="465.00">
        <route edges="-74851423#1 -74851423#0 -700293878 -291266017#0 291266019#1 1312753970#0 1312753970#1 996679780#2 563974735#0 563974735#1 563974735#3 563974735#5 563974735#6 563974735#7"/>
    </vehicle>
    <vehicle id="466" depart="466.00">
        <route edges="-291266017#2 -291266017#1 -291266017#0 291266019#1 1312753970#0 1312753970#1 1312753971#0 611866602#0 24582921#0 24582921#2 24582921#3 24582921#4 24582921#5 24582921#6 24582921#7 -24582921#7 -24582921#6 -24582921#5"/>
    </vehicle>
    <vehicle id="467" depart="467.00">
        <route edges="370761286#2 370761286#3 370761286#4 370761286#5 370761286#6 370761286#7 370761286#8 1000448884#1 1000448884#2 1300354437#1 80499778#4 80499778#5"/>
    </vehicle>
    <vehicle id="491" depart="491.00">
        <route edges="-24582921#5 -24582921#4 -24582921#3 -24582921#2 -24582921#0 24582921#0 24582921#2 24582921#3 24582921#4 24582921#5"/>
    </vehicle>
    <vehicle id="492" depart="492.00">
        <route edges="563679820#6 563679820#8 563679820#9 563679820#10 563679820#11 563679820#12 996679780#2 563974735#0 563974735#1 563974735#3 563974735#5 563974735#6"/>
    </vehicle>
    <vehicle id="503" depart="503.00">
        <route edges="-343654534#1 -343654534#0 343654534#0 343654534#1 343654534#2 563679820#1 563679820#2 563679820#3 563679820#4 563679820#5 563679820#6 563679820#8 563679820#9 563679820#10 563679820#11 563679820#12 1312753971#0 611866602#0 24582921#0 24582921#2 24582921#3 24582921#4 24582921#5 24582921#6 24582921#7 -24582921#7 -24582921#6 -24582921#5 -24582921#4 -24582921#3"/>
    </vehicle>
    <vehicle id="504" depart="504.00">
        <route edges="700293880 -74851423#1 -74851423#0 -700293878 -291266017#0 291266019#1 1312753970#0 1312753970#1 1312753971#0 611866602#0 24582921#0 24582921#2 24582921#3 24582921#4 24582921#5"/>
    </vehicle>
    <vehicle id="505" depart="505.00">
        <route edges="563679820#4 563679820#5 563679820#6 563679820#8 563679820#9 563679820#10 563679820#11"/>
    </vehicle>
    <vehicle id="514" depart="514.00">
        <route edges="-24582921#7 -24582921#6 -24582921#5"/>
    </vehicle>
    <vehicle id="515" depart="515.00">
        <route edges="-707566695#1 -343654534#1 -343654534#0"/>
    </vehicle>
    <vehicle id="519" depart="519.00">
        <route edges="-291266017#2 -291266017#1 -291266017#0 291266019#1 1312753970#0 1312753970#1 80499778#0 80499778#2 80499778#3 -1300354437#1"/>
    </vehicle>
    <vehicle id="526" depart="526.00">
        <route edges="343654534#1 343654534#2 563679820#1 563679820#2 563679820#3 563679820#4 563679820#5 563679820#6 563679820#8 563679820#9 563679820#10 563679820#11 563679820#12 1312753971#0 611866602#0 24582921#0 24582921#2 24582921#3 24582921#4 24582921#5 24582921#6"/>
    </vehicle>
    <vehicle id="527" depart="527.00">
        <route edges="80499778#3 80499778#4 80499778#5 -164675827#4 -164675827#2 -164675827#1"/>
    </vehicle>
    <vehicle id="531" depart="531.00">
        <route edges="-24582918#1 -24582918#0 24582918#0 24582918#1 24582918#2 578543603#1 578543603#2 611866604#0 553596950"/>
    </vehicle>
    <vehicle id="533" depart="533.00">
        <route edges="563679820#10 563679820#11 563974731#0 563974731#1 80499778#2 370761286#1 370761286#2 370761286#3 370761286#4 370761286#5"/>
    </vehicle>
    <vehicle id="552" depart="552.00">
        <route edges="570616026#0 343654534#0 343654534#1 343654534#2 563679820#1 563679820#2 563679820#3 563679820#4 563679820#5 563679820#6 563679820#8 707566696#0"/>
    </vehicle>
    <vehicle id="560" depart="560.00">
        <route edges="700293878 74851423#0 686814926 -291266017#1 -291266017#0 291266019#1 1312753970#0 1312753970#1 996679780#2"/>
    </vehicle>
    <vehicle id="564" depart="564.00">
        <route edges="-707566696#3 -707566696#1 -707566695#1 -343654534#1"/>
    </vehicle>
    <vehicle id="566" depart="566.00">
        <route edges="1121142413#1 -1121142413#1 -1121142413#0"/>
    </vehicle>
    <vehicle id="567" depart="567.00">
        <route edges="707566696#1 707566696#3 707566696#4 -707566696#4 -707566696#3 -707566696#1 -707566696#0 563679820#9 563679820#10 563679820#11 563974731#0 563974731#1 80499778#2 370761286#1 370761286#2 370761286#3 370761286#4 370761286#5 370761286#6 370761286#7 370761286#8"/>
    </vehicle>
    <vehicle id="573" depart="573.00">
        <route edges="578543603#2 578543603#3 80499778#0 80499778#2 370761286#1 370761286#2 370761286#3 370761286#4 370761286#5 370761286#6 370761286#7 370761286#8"/>
    </vehicle>
    <vehicle id="574" depart="574.00">
        <route edges="-24582918#1 -24582918#0 24582918#0 24582918#1 24582918#2 578543603#1 578543603#2 578543603#3 80499778#0 80499778#2 80499778#3 -1300354437#1"/>
    </vehicle>
    <vehicle id="579" depart="579.00">
        <route edges="570616026#0 343654534#0 343654534#1 343654534#2 563679820#1 563679820#2 563679820#3 563679820#4 563679820#5 563679820#6 563679820#8 563679820#9 563679820#10 563679820#11 563679820#12 1312753971#0 611866602#0 24582921#0 24582921#2 24582921#3 24582921#4 24582921#5 24582921#6 24582921#7 -24582921#7 -24582921#6 -24582921#5 -24582921#4 -24582921#3 -24582921#2"/>
    </vehicle>
    <vehicle id="582" depart="582.00">
        <route edges="563679820#5 563679820#6 563679820#8 563679820#9 563679820#10 563679820#11 563679820#12 523568284#1 523568284#3-AddedOnRampEdge 523568284#3 -1123316542"/>
    </vehicle>
    <vehicle id="588" depart="588.00">
        <route edges="-291266017#2 -291266017#1 -291266017#0 291266019#1 1312753970#0 1312753970#1 1312753971#0"/>
    </vehicle>
    <vehicle id="590" depart="590.00">
        <route edges="665921717 1312753970#0 1312753970#1 1312753971#0 611866602#0 611866602#1"/>
    </vehicle>
    <vehicle id="592" depart="592.00">
        <route edges="-1121142414 1121142414 -1121142413#3 -1121142413#2"/>
    </vehicle>
    <vehicle id="594" depart="594.00">
        <route edges="423563749#0"/>
    </vehicle>
    <vehicle id="603" depart="603.00">
        <route edges="1121142413#1 1121142413#2"/>
    </vehicle>
    <vehicle id="606" depart="606.00">
        <route edges="720546573#2 720546573#3 720546573#4 720546573#5 1121142413#0 1121142414"/>
    </vehicle>
    <vehicle id="611" depart="611.00">
        <route edges="563679820#3 563679820#4 563679820#5 563679820#6 563679820#8 707566696#0 -707566695#1 -343654534#1"/>
    </vehicle>
    <vehicle id="613" depart="613.00">
        <route edges="570616026#0"/>
    </vehicle>
    <vehicle id="616" depart="616.00">
        <route edges="563679820#0 -343654534#2 707566695#1"/>
    </vehicle>
    <vehicle id="617" depart="617.00">
        <route edges="563679820#1 563679820#2 563679820#3 563679820#4 563679820#5 563679820#6 563679820#8 563679820#9 563679820#10 563679820#11 563679820#12 996679780#2 563974735#0 563974735#1 24583592#0 24583592#1 -24583592#2 -24583592#0"/>
    </vehicle>
    <vehicle id="625" depart="625.00">
        <route edges="291266019#1 1312753970#0 1312753970#1 1312753971#0 611866602#0 24582921#0 24582921#2 24582921#3 24582921#4 24582921#5 24582921#6"/>
    </vehicle>
    <vehicle id="629" depart="629.00">
        <route edges="1076627690 563974732#0 563974732#1 563974732#2 563974735#0 563974735#1 24583592#0 24583592#1"/>
    </vehicle>
    <vehicle id="632" depart="632.00">
        <route edges="1121142413#2 1121142413#3 1121142413#4 720546573#5 720546573#6 720546573#7 563974732#1 563974732#2"/>
    </vehicle>
    <vehicle id="634" depart="634.00">